tests/data/opendss_circuit_models/SFO/5d88023c-5d47-43d2-ba6a-318c90443177/LineCodes.dss
New Linecode.3P_UG_AL_750kcmil_3 units=km nphases=3 Faultrate=0.1 Rmatrix=(0.22961329999999996 0.1512433 0.1512433 | 0.1512433 0.22961329999999996 0.1512433 | 0.1512433 0.1512433 0.22961329999999996 ) Xmatrix=(0.54 0.2955 0.2955 | 0.2955 0.54 0.2955 | 0.2955 0.2955 0.54 ) Cmatrix=(169.559 -84.214 -84.214 | -84.214 169.559 -84.214 | -84.214 -84.214 169.559 ) normamps=550.0

New Linecode.3P_UG_AL_3 units=km nphases=3 Faultrate=0.1 Rmatrix=(0.3289333 0.05923333 0.05923333 | 0.05923333 0.3289333 0.05923333 | 0.05923333 0.05923333 0.3289333 ) Xmatrix=(0.9076 0.6647 0.6647 | 0.6647 0.9076 0.6647 | 0.6647 0.6647 0.9076 ) Cmatrix=(120.289 -59.026 -59.026 | -59.026 120.289 -59.026 | -59.026 -59.026 120.289 ) normamps=295.0

New Linecode.3P_UG_AL_350kcmil_3 units=km nphases=3 Faultrate=0.1 Rmatrix=(0.3388667 0.1744667 0.1744667 | 0.1744667 0.3388667 0.1744667 | 0.1744667 0.1744667 0.3388667 ) Xmatrix=(0.5126 0.2912 0.2912 | 0.2912 0.5126 0.2912 | 0.2912 0.2912 0.5126 ) Cmatrix=(164.365 -81.63499999999999 -81.63499999999999 | -81.63499999999999 164.365 -81.63499999999999 | -81.63499999999999 -81.63499999999999 164.365 ) normamps=370.0

New Linecode.3P_OH_AL_ACSR_4/0_Penguin_3 units=km nphases=3 Faultrate=0.1 Rmatrix=(0.3325 0.0592 0.0592 | 0.0592 0.3325 0.0592 | 0.0592 0.0592 0.3325 ) Xmatrix=(0.9011 0.4820999999999999 0.4820999999999999 | 0.4820999999999999 0.9011 0.4820999999999999 | 0.4820999999999999 0.4820999999999999 0.9011 ) Cmatrix=(7.694233 -2.914467 -2.914467 | -2.914467 7.694233 -2.914467 | -2.914467 -2.914467 7.694233 ) normamps=325.0

New Linecode.3P_OH_AL_ACSR_1033kcmil_Curlew_3 units=km nphases=3 Faultrate=0.1 Rmatrix=(0.1599667 0.03756667 0.03756667 | 0.03756667 0.1599667 0.03756667 | 0.03756667 0.03756667 0.1599667 ) Xmatrix=(0.8366667 0.4823667 0.4823667 | 0.4823667 0.8366667 0.4823667 | 0.4823667 0.4823667 0.8366667 ) Cmatrix=(8.946933 -3.572767 -3.572767 | -3.572767 8.946933 -3.572767 | -3.572767 -3.572767 8.946933 ) normamps=960.0

New Linecode.padswitch_3_1 units=km nphases=3 Faultrate=0.1 Rmatrix=(0.001 0.0 0.0 | 0.0 0.001 0.0 | 0.0 0.0 0.001 ) Xmatrix=(0.001 0.0 0.0 | 0.0 0.001 0.0 | 0.0 0.0 0.001 ) Cmatrix=(3.499563 -0.1093613 -0.1093613 | -0.1093613 3.499563 -0.1093613 | -0.1093613 -0.1093613 3.499563 ) normamps=295.0

New Linecode.padswitch_3_7 units=km nphases=3 Faultrate=0.1 Rmatrix=(0.001 0.0 0.0 | 0.0 0.001 0.0 | 0.0 0.0 0.001 ) Xmatrix=(0.001 0.0 0.0 | 0.0 0.001 0.0 | 0.0 0.0 0.001 ) Cmatrix=(3.499563 -0.1093613 -0.1093613 | -0.1093613 3.499563 -0.1093613 | -0.1093613 -0.1093613 3.499563 ) normamps=550.0

New Linecode.padswitch_3 units=km nphases=3 Faultrate=0.1 Rmatrix=(0.001 0.0 0.0 | 0.0 0.001 0.0 | 0.0 0.0 0.001 ) Xmatrix=(0.001 0.0 0.0 | 0.0 0.001 0.0 | 0.0 0.0 0.001 ) Cmatrix=(3.499563 -0.1093613 -0.1093613 | -0.1093613 3.499563 -0.1093613 | -0.1093613 -0.1093613 3.499563 ) normamps=325.0

New Linecode.padswitch_3_5 units=km nphases=3 Faultrate=0.1 Rmatrix=(0.001 0.0 0.0 | 0.0 0.001 0.0 | 0.0 0.0 0.001 ) Xmatrix=(0.001 0.0 0.0 | 0.0 0.001 0.0 | 0.0 0.0 0.001 ) Cmatrix=(3.499563 -0.1093613 -0.1093613 | -0.1093613 3.499563 -0.1093613 | -0.1093613 -0.1093613 3.499563 ) normamps=370.0

New Linecode.elbswitch_3 units=km nphases=3 Faultrate=0.1 Rmatrix=(0.001 0.0 0.0 | 0.0 0.001 0.0 | 0.0 0.0 0.001 ) Xmatrix=(0.001 0.0 0.0 | 0.0 0.001 0.0 | 0.0 0.0 0.001 ) Cmatrix=(3.499563 -0.1093613 -0.1093613 | -0.1093613 3.499563 -0.1093613 | -0.1093613 -0.1093613 3.499563 ) normamps=115.0

New Linecode.goab_disswitch_3 units=km nphases=3 Faultrate=0.1 Rmatrix=(0.001 0.0 0.0 | 0.0 0.001 0.0 | 0.0 0.0 0.001 ) Xmatrix=(0.001 0.0 0.0 | 0.0 0.001 0.0 | 0.0 0.0 0.001 ) Cmatrix=(3.499563 -0.1093613 -0.1093613 | -0.1093613 3.499563 -0.1093613 | -0.1093613 -0.1093613 3.499563 ) normamps=325.0

New Linecode.recloser_3 units=km nphases=3 Faultrate=0.1 Rmatrix=(0.001 0.0 0.0 | 0.0 0.001 0.0 | 0.0 0.0 0.001 ) Xmatrix=(0.001 0.0 0.0 | 0.0 0.001 0.0 | 0.0 0.0 0.001 ) Cmatrix=(3.499563 -0.1093613 -0.1093613 | -0.1093613 3.499563 -0.1093613 | -0.1093613 -0.1093613 3.499563 ) normamps=325.0

New Linecode.goab_disswitch_3_2 units=km nphases=3 Faultrate=0.1 Rmatrix=(0.001 0.0 0.0 | 0.0 0.001 0.0 | 0.0 0.0 0.001 ) Xmatrix=(0.001 0.0 0.0 | 0.0 0.001 0.0 | 0.0 0.0 0.001 ) Cmatrix=(3.499563 -0.1093613 -0.1093613 | -0.1093613 3.499563 -0.1093613 | -0.1093613 -0.1093613 3.499563 ) normamps=370.0

