tests/data/opendss_circuit_models/SFO/accdf54c-c90c-4c41-9d7a-5e5d3d17a4e5/LineCodes.dss
New Linecode.1P_OH_AL_2/0_Rucina_2 units=km nphases=2 Faultrate=0.1 Rmatrix=(0.7166333333333332 0.28753333333333336 | 0.28753333333333336 0.7166333333333332 ) Xmatrix=(0.28883333333333333 0.1932333333333333 | 0.1932333333333333 0.28883333333333333 ) Cmatrix=(39.3595 -19.342100000000002 | -19.342100000000002 39.3595 ) normamps=115.0

New Linecode.1P_OH_AL_4/0_Zuzara_2 units=km nphases=2 Faultrate=0.1 Rmatrix=(0.4728 0.20209999999999997 | 0.20209999999999997 0.4728 ) Xmatrix=(0.21353333333333335 0.12473333333333335 | 0.12473333333333335 0.21353333333333335 ) Cmatrix=(41.3578 -20.447400000000002 | -20.447400000000002 41.3578 ) normamps=115.0

New Linecode.1P_UG_AL_1/0_Brenau_2 units=km nphases=2 Faultrate=0.1 Rmatrix=(0.9149 0.3744 | 0.3744 0.9149 ) Xmatrix=(0.4972667 0.3969667 | 0.3969667 0.4972667 ) Cmatrix=(36.0694 -16.7435 | -16.7435 36.0694 ) normamps=205.0

New Linecode.1P_UG_AL_4/0_Sweetbriar_2 units=km nphases=2 Faultrate=0.1 Rmatrix=(0.5462333 0.2755333 | 0.2755333 0.5462333 ) Xmatrix=(0.2976 0.2043 | 0.2043 0.2976 ) Cmatrix=(39.0924 -18.84 | -18.84 39.0924 ) normamps=301.0

New Linecode.1P_UG_AL_2/0_Converse_2 units=km nphases=2 Faultrate=0.1 Rmatrix=(0.7793333 0.3503333 | 0.3503333 0.7793333 ) Xmatrix=(0.4209333 0.3231333 | 0.3231333 0.4209333 ) Cmatrix=(37.06953 -17.46757 | -17.46757 37.06953 ) normamps=233.0

New Linecode.1P_OH_AL_4_Periwinkle_2 units=km nphases=2 Faultrate=0.1 Rmatrix=(1.7609666666666666 0.3959666666666668 | 0.3959666666666668 1.7609666666666666 ) Xmatrix=(0.6698333333333334 0.5686333333333333 | 0.5686333333333333 0.6698333333333334 ) Cmatrix=(36.92503333333334 -17.558966666666667 | -17.558966666666667 36.92503333333334 ) normamps=115.0

New Linecode.2P_OH_AL_ACSR_4/0_Penguin_2 units=km nphases=2 Faultrate=0.1 Rmatrix=(0.3599333 0.08663333 | 0.08663333 0.3599333 ) Xmatrix=(0.6536332999999999 0.1998333 | 0.1998333 0.6536332999999999 ) Cmatrix=(0.0 -0.0 | -0.0 0.0 ) normamps=325.0

New Linecode.3P_OH_AL_ACSR_4/0_Penguin_3 units=km nphases=3 Faultrate=0.1 Rmatrix=(0.3325 0.0592 0.0592 | 0.0592 0.3325 0.0592 | 0.0592 0.0592 0.3325 ) Xmatrix=(0.9011 0.4820999999999999 0.4820999999999999 | 0.4820999999999999 0.9011 0.4820999999999999 | 0.4820999999999999 0.4820999999999999 0.9011 ) Cmatrix=(7.694233 -2.914467 -2.914467 | -2.914467 7.694233 -2.914467 | -2.914467 -2.914467 7.694233 ) normamps=325.0

New Linecode.3P_UG_AL_3 units=km nphases=3 Faultrate=0.1 Rmatrix=(0.3289333 0.05923333 0.05923333 | 0.05923333 0.3289333 0.05923333 | 0.05923333 0.05923333 0.3289333 ) Xmatrix=(0.9076 0.6647 0.6647 | 0.6647 0.9076 0.6647 | 0.6647 0.6647 0.9076 ) Cmatrix=(120.289 -59.026 -59.026 | -59.026 120.289 -59.026 | -59.026 -59.026 120.289 ) normamps=295.0

New Linecode.3P_UG_AL_750kcmil_3 units=km nphases=3 Faultrate=0.1 Rmatrix=(0.22961329999999996 0.1512433 0.1512433 | 0.1512433 0.22961329999999996 0.1512433 | 0.1512433 0.1512433 0.22961329999999996 ) Xmatrix=(0.54 0.2955 0.2955 | 0.2955 0.54 0.2955 | 0.2955 0.2955 0.54 ) Cmatrix=(169.559 -84.214 -84.214 | -84.214 169.559 -84.214 | -84.214 -84.214 169.559 ) normamps=550.0

New Linecode.3P_UG_AL_350kcmil_3 units=km nphases=3 Faultrate=0.1 Rmatrix=(0.3388667 0.1744667 0.1744667 | 0.1744667 0.3388667 0.1744667 | 0.1744667 0.1744667 0.3388667 ) Xmatrix=(0.5126 0.2912 0.2912 | 0.2912 0.5126 0.2912 | 0.2912 0.2912 0.5126 ) Cmatrix=(164.365 -81.63499999999999 -81.63499999999999 | -81.63499999999999 164.365 -81.63499999999999 | -81.63499999999999 -81.63499999999999 164.365 ) normamps=370.0

New Linecode.3P_OH_AL_ACSR_1033kcmil_Curlew_3 units=km nphases=3 Faultrate=0.1 Rmatrix=(0.1599667 0.03756667 0.03756667 | 0.03756667 0.1599667 0.03756667 | 0.03756667 0.03756667 0.1599667 ) Xmatrix=(0.8366667 0.4823667 0.4823667 | 0.4823667 0.8366667 0.4823667 | 0.4823667 0.4823667 0.8366667 ) Cmatrix=(8.946933 -3.572767 -3.572767 | -3.572767 8.946933 -3.572767 | -3.572767 -3.572767 8.946933 ) normamps=960.0

New Linecode.padswitch_2 units=km nphases=2 Faultrate=0.1 Rmatrix=(0.001 0.0 | 0.0 0.001 ) Xmatrix=(0.001 0.0 | 0.0 0.001 ) Cmatrix=(0.0 -0.0 | -0.0 0.0 ) normamps=325.0

New Linecode.padswitch_2_1 units=km nphases=2 Faultrate=0.1 Rmatrix=(0.001 0.0 | 0.0 0.001 ) Xmatrix=(0.001 0.0 | 0.0 0.001 ) Cmatrix=(0.0 -0.0 | -0.0 0.0 ) normamps=205.0

New Linecode.padswitch_2_3 units=km nphases=2 Faultrate=0.1 Rmatrix=(0.001 0.0 | 0.0 0.001 ) Xmatrix=(0.001 0.0 | 0.0 0.001 ) Cmatrix=(0.0 -0.0 | -0.0 0.0 ) normamps=301.0

New Linecode.padswitch_2_2 units=km nphases=2 Faultrate=0.1 Rmatrix=(0.001 0.0 | 0.0 0.001 ) Xmatrix=(0.001 0.0 | 0.0 0.001 ) Cmatrix=(0.0 -0.0 | -0.0 0.0 ) normamps=115.0

New Linecode.padswitch_2_4 units=km nphases=2 Faultrate=0.1 Rmatrix=(0.001 0.0 | 0.0 0.001 ) Xmatrix=(0.001 0.0 | 0.0 0.001 ) Cmatrix=(0.0 -0.0 | -0.0 0.0 ) normamps=233.0

New Linecode.padswitch_3_6 units=km nphases=3 Faultrate=0.1 Rmatrix=(0.001 0.0 0.0 | 0.0 0.001 0.0 | 0.0 0.0 0.001 ) Xmatrix=(0.001 0.0 0.0 | 0.0 0.001 0.0 | 0.0 0.0 0.001 ) Cmatrix=(3.499563 -0.1093613 -0.1093613 | -0.1093613 3.499563 -0.1093613 | -0.1093613 -0.1093613 3.499563 ) normamps=205.0

New Linecode.padswitch_3_4 units=km nphases=3 Faultrate=0.1 Rmatrix=(0.001 0.0 0.0 | 0.0 0.001 0.0 | 0.0 0.0 0.001 ) Xmatrix=(0.001 0.0 0.0 | 0.0 0.001 0.0 | 0.0 0.0 0.001 ) Cmatrix=(3.499563 -0.1093613 -0.1093613 | -0.1093613 3.499563 -0.1093613 | -0.1093613 -0.1093613 3.499563 ) normamps=115.0

New Linecode.padswitch_3_1 units=km nphases=3 Faultrate=0.1 Rmatrix=(0.001 0.0 0.0 | 0.0 0.001 0.0 | 0.0 0.0 0.001 ) Xmatrix=(0.001 0.0 0.0 | 0.0 0.001 0.0 | 0.0 0.0 0.001 ) Cmatrix=(3.499563 -0.1093613 -0.1093613 | -0.1093613 3.499563 -0.1093613 | -0.1093613 -0.1093613 3.499563 ) normamps=295.0

New Linecode.padswitch_3 units=km nphases=3 Faultrate=0.1 Rmatrix=(0.001 0.0 0.0 | 0.0 0.001 0.0 | 0.0 0.0 0.001 ) Xmatrix=(0.001 0.0 0.0 | 0.0 0.001 0.0 | 0.0 0.0 0.001 ) Cmatrix=(3.499563 -0.1093613 -0.1093613 | -0.1093613 3.499563 -0.1093613 | -0.1093613 -0.1093613 3.499563 ) normamps=325.0

New Linecode.elbswitch_3_1 units=km nphases=3 Faultrate=0.1 Rmatrix=(0.001 0.0 0.0 | 0.0 0.001 0.0 | 0.0 0.0 0.001 ) Xmatrix=(0.001 0.0 0.0 | 0.0 0.001 0.0 | 0.0 0.0 0.001 ) Cmatrix=(3.499563 -0.1093613 -0.1093613 | -0.1093613 3.499563 -0.1093613 | -0.1093613 -0.1093613 3.499563 ) normamps=325.0

New Linecode.recloser_3 units=km nphases=3 Faultrate=0.1 Rmatrix=(0.001 0.0 0.0 | 0.0 0.001 0.0 | 0.0 0.0 0.001 ) Xmatrix=(0.001 0.0 0.0 | 0.0 0.001 0.0 | 0.0 0.0 0.001 ) Cmatrix=(3.499563 -0.1093613 -0.1093613 | -0.1093613 3.499563 -0.1093613 | -0.1093613 -0.1093613 3.499563 ) normamps=325.0

New Linecode.goab_disswitch_3 units=km nphases=3 Faultrate=0.1 Rmatrix=(0.001 0.0 0.0 | 0.0 0.001 0.0 | 0.0 0.0 0.001 ) Xmatrix=(0.001 0.0 0.0 | 0.0 0.001 0.0 | 0.0 0.0 0.001 ) Cmatrix=(3.499563 -0.1093613 -0.1093613 | -0.1093613 3.499563 -0.1093613 | -0.1093613 -0.1093613 3.499563 ) normamps=325.0

New Linecode.disswitch_2 units=km nphases=2 Faultrate=0.1 Rmatrix=(0.001 0.0 | 0.0 0.001 ) Xmatrix=(0.001 0.0 | 0.0 0.001 ) Cmatrix=(0.0 -0.0 | -0.0 0.0 ) normamps=115.0

New Linecode.disswitch_2_1 units=km nphases=2 Faultrate=0.1 Rmatrix=(0.001 0.0 | 0.0 0.001 ) Xmatrix=(0.001 0.0 | 0.0 0.001 ) Cmatrix=(0.0 -0.0 | -0.0 0.0 ) normamps=325.0

New Linecode.goab_disswitch_3_1 units=km nphases=3 Faultrate=0.1 Rmatrix=(0.001 0.0 0.0 | 0.0 0.001 0.0 | 0.0 0.0 0.001 ) Xmatrix=(0.001 0.0 0.0 | 0.0 0.001 0.0 | 0.0 0.0 0.001 ) Cmatrix=(3.499563 -0.1093613 -0.1093613 | -0.1093613 3.499563 -0.1093613 | -0.1093613 -0.1093613 3.499563 ) normamps=115.0

