tests/data/opendss_circuit_models/SFO/43f2eb16-fd81-480c-a251-db81b29aaa5b/Lines.dss
New Line.l(r:p10udt4775lv-p10ulv15644) Units=km Length=0.0149968 bus1=p10udt4775lv.1.2 bus2=p10ulv15644.1.2 switch=n enabled=y phases=2 Linecode=1P_UG_AL_1/0_Brenau_2

New Line.l(r:p10udm15799-p10ulv16351) Units=km Length=0.0110301 bus1=p10udm15799.1.2 bus2=p10ulv16351.1.2 switch=n enabled=y phases=2 Linecode=1P_UG_AL_1/0_Brenau_2

New Line.l(r:p10udm15796-p10ulv15788) Units=km Length=0.0164395 bus1=p10udm15796.1.2 bus2=p10ulv15788.1.2 switch=n enabled=y phases=2 Linecode=1P_UG_AL_1/0_Brenau_2

New Line.l(r:p10udm15793-p10ulv15615) Units=km Length=0.0159379 bus1=p10udm15793.1.2 bus2=p10ulv15615.1.2 switch=n enabled=y phases=2 Linecode=1P_UG_AL_1/0_Brenau_2

New Line.l(r:p10udm15793-p10ulv15804) Units=km Length=0.0162669 bus1=p10udm15793.1.2 bus2=p10ulv15804.1.2 switch=n enabled=y phases=2 Linecode=1P_UG_AL_1/0_Brenau_2

New Line.l(r:p10udm15793-p10udm15796) Units=km Length=0.019160400000000005 bus1=p10udm15796.1.2 bus2=p10udm15793.1.2 switch=n enabled=y phases=2 Linecode=1P_UG_AL_1/0_Brenau_2

New Line.l(r:p10udm15796-p10udm15799) Units=km Length=0.00957019 bus1=p10udm15799.1.2 bus2=p10udm15796.1.2 switch=n enabled=y phases=2 Linecode=1P_UG_AL_1/0_Brenau_2

New Line.l(r:p10udm15799-p10udt4775lv) Units=km Length=0.009580260000000002 bus1=p10udt4775lv.1.2 bus2=p10udm15799.1.2 switch=n enabled=y phases=2 Linecode=1P_UG_AL_1/0_Brenau_2

New Line.l(r:p10udm15801-p10ulv16459) Units=km Length=0.0109788 bus1=p10udm15801.1.2 bus2=p10ulv16459.1.2 switch=n enabled=y phases=2 Linecode=1P_UG_AL_1/0_Brenau_2

New Line.l(r:p10udm15795-p10ulv15741) Units=km Length=0.0180103 bus1=p10udm15795.1.2 bus2=p10ulv15741.1.2 switch=n enabled=y phases=2 Linecode=1P_UG_AL_1/0_Brenau_2

New Line.l(r:p10udm15795-p10ulv16446) Units=km Length=0.011224 bus1=p10udm15795.1.2 bus2=p10ulv16446.1.2 switch=n enabled=y phases=2 Linecode=1P_UG_AL_1/0_Brenau_2

New Line.l(r:p10udm15798-p10ulv15856) Units=km Length=0.0200887 bus1=p10udm15798.1.2 bus2=p10ulv15856.1.2 switch=n enabled=y phases=2 Linecode=1P_UG_AL_1/0_Brenau_2

New Line.l(r:p10udm15795-p10udm15798) Units=km Length=0.0191504 bus1=p10udm15795.1.2 bus2=p10udm15798.1.2 switch=n enabled=y phases=2 Linecode=1P_UG_AL_1/0_Brenau_2

New Line.l(r:p10udm15795-p10udm15801) Units=km Length=0.00958019 bus1=p10udm15801.1.2 bus2=p10udm15795.1.2 switch=n enabled=y phases=2 Linecode=1P_UG_AL_1/0_Brenau_2

New Line.l(r:p10udm15801-p10udt4775lv) Units=km Length=0.00958019 bus1=p10udt4775lv.1.2 bus2=p10udm15801.1.2 switch=n enabled=y phases=2 Linecode=1P_UG_AL_1/0_Brenau_2

New Line.l(r:p10udm15803-p10ulv15617) Units=km Length=0.0143003 bus1=p10udm15803.1.2 bus2=p10ulv15617.1.2 switch=n enabled=y phases=2 Linecode=1P_UG_AL_1/0_Brenau_2

New Line.l(r:p10udm15803-p10ulv16241) Units=km Length=0.013249 bus1=p10udm15803.1.2 bus2=p10ulv16241.1.2 switch=n enabled=y phases=2 Linecode=1P_UG_AL_1/0_Brenau_2

New Line.l(r:p10udm15804-p10ulv15636) Units=km Length=0.013656400000000003 bus1=p10udm15804.1.2 bus2=p10ulv15636.1.2 switch=n enabled=y phases=2 Linecode=1P_UG_AL_1/0_Brenau_2

New Line.l(r:p10udm15804-p10ulv16376) Units=km Length=0.0137902 bus1=p10udm15804.1.2 bus2=p10ulv16376.1.2 switch=n enabled=y phases=2 Linecode=1P_UG_AL_1/0_Brenau_2

New Line.l(r:p10udm15806-p10ulv15749) Units=km Length=0.0136161 bus1=p10udm15806.1.2 bus2=p10ulv15749.1.2 switch=n enabled=y phases=2 Linecode=1P_UG_AL_1/0_Brenau_2

New Line.l(r:p10udm15804-p10udm15806) Units=km Length=0.019883 bus1=p10udm15804.1.2 bus2=p10udm15806.1.2 switch=n enabled=y phases=2 Linecode=1P_UG_AL_1/0_Brenau_2

New Line.l(r:p10udm15803-p10udm15804) Units=km Length=0.0198834 bus1=p10udm15803.1.2 bus2=p10udm15804.1.2 switch=n enabled=y phases=2 Linecode=1P_UG_AL_1/0_Brenau_2

New Line.l(r:p10udm15803-p10udt4777lv) Units=km Length=0.009936520000000003 bus1=p10udt4777lv.1.2 bus2=p10udm15803.1.2 switch=n enabled=y phases=2 Linecode=1P_UG_AL_2/0_Converse_2

New Line.l(r:p10udm15807-p10ulv15761) Units=km Length=0.0139346 bus1=p10udm15807.1.2 bus2=p10ulv15761.1.2 switch=n enabled=y phases=2 Linecode=1P_UG_AL_1/0_Brenau_2

New Line.l(r:p10udm15807-p10ulv16324) Units=km Length=0.013281 bus1=p10udm15807.1.2 bus2=p10ulv16324.1.2 switch=n enabled=y phases=2 Linecode=1P_UG_AL_1/0_Brenau_2

New Line.l(r:p10udm15808-p10ulv15974) Units=km Length=0.0135853 bus1=p10udm15808.1.2 bus2=p10ulv15974.1.2 switch=n enabled=y phases=2 Linecode=1P_UG_AL_1/0_Brenau_2

New Line.l(r:p10udm15805-p10ulv15667) Units=km Length=0.013245400000000001 bus1=p10udm15805.1.2 bus2=p10ulv15667.1.2 switch=n enabled=y phases=2 Linecode=1P_UG_AL_1/0_Brenau_2

New Line.l(r:p10udm15805-p10ulv16249) Units=km Length=0.0121907 bus1=p10udm15805.1.2 bus2=p10ulv16249.1.2 switch=n enabled=y phases=2 Linecode=1P_UG_AL_1/0_Brenau_2

New Line.l(r:p10udm15805-p10udm15808) Units=km Length=0.009936520000000003 bus1=p10udm15808.1.2 bus2=p10udm15805.1.2 switch=n enabled=y phases=2 Linecode=1P_UG_AL_1/0_Brenau_2

New Line.l(r:p10udm15807-p10udm15808) Units=km Length=0.009936520000000003 bus1=p10udm15807.1.2 bus2=p10udm15808.1.2 switch=n enabled=y phases=2 Linecode=1P_UG_AL_1/0_Brenau_2

New Line.l(r:p10udm15807-p10udt4777lv) Units=km Length=0.00994688 bus1=p10udt4777lv.1.2 bus2=p10udm15807.1.2 switch=n enabled=y phases=2 Linecode=1P_UG_AL_2/0_Converse_2

New Line.l(r:p10udt4780lv-p10ulv15620) Units=km Length=0.0259956 bus1=p10udt4780lv.1.2 bus2=p10ulv15620.1.2 switch=n enabled=y phases=2 Linecode=1P_OH_AL_2/0_Rucina_2

New Line.l(r:p10udm15828-p10ulv15645) Units=km Length=0.026797 bus1=p10udm15828.1.2 bus2=p10ulv15645.1.2 switch=n enabled=y phases=2 Linecode=1P_OH_AL_2/0_Rucina_2

New Line.l(r:p10udm15828-p10ulv15860) Units=km Length=0.0169623 bus1=p10udm15828.1.2 bus2=p10ulv15860.1.2 switch=n enabled=y phases=2 Linecode=1P_OH_AL_2/0_Rucina_2

New Line.l(r:p10udm15828-p10udt4780lv) Units=km Length=0.0171092 bus1=p10udt4780lv.1.2 bus2=p10udm15828.1.2 switch=n enabled=y phases=2 Linecode=1P_OH_AL_2/0_Rucina_2

New Line.l(r:p10udm15830-p10ulv15768) Units=km Length=0.0156515 bus1=p10udm15830.1.2 bus2=p10ulv15768.1.2 switch=n enabled=y phases=2 Linecode=1P_OH_AL_2/0_Rucina_2

New Line.l(r:p10udm15829-p10ulv15743) Units=km Length=0.024652 bus1=p10udm15829.1.2 bus2=p10ulv15743.1.2 switch=n enabled=y phases=2 Linecode=1P_OH_AL_2/0_Rucina_2

New Line.l(r:p10udm15829-p10udm15830) Units=km Length=0.10540200000000001 bus1=p10udm15830.1.2 bus2=p10udm15829.1.2 switch=n enabled=y phases=2 Linecode=1P_OH_AL_4/0_Zuzara_2

New Line.l(r:p10udm15830-p10udt4780lv) Units=km Length=0.0680771 bus1=p10udt4780lv.1.2 bus2=p10udm15830.1.2 switch=n enabled=y phases=2 Linecode=1P_OH_AL_4/0_Zuzara_2

New Line.l(r:p10udt4786lv-p10ulv15752) Units=km Length=0.0122197 bus1=p10udt4786lv.1.2 bus2=p10ulv15752.1.2 switch=n enabled=y phases=2 Linecode=1P_UG_AL_1/0_Brenau_2

New Line.l(r:p10udm15861-p10ulv15626) Units=km Length=0.0128725 bus1=p10udm15861.1.2 bus2=p10ulv15626.1.2 switch=n enabled=y phases=2 Linecode=1P_UG_AL_1/0_Brenau_2

New Line.l(r:p10udm15861-p10ulv15810) Units=km Length=0.0178025 bus1=p10udm15861.1.2 bus2=p10ulv15810.1.2 switch=n enabled=y phases=2 Linecode=1P_UG_AL_1/0_Brenau_2

New Line.l(r:p10udm15861-p10udt4786lv) Units=km Length=0.0135507 bus1=p10udt4786lv.1.2 bus2=p10udm15861.1.2 switch=n enabled=y phases=2 Linecode=1P_UG_AL_1/0_Brenau_2

New Line.l(r:p10udm15865-p10ulv15837) Units=km Length=0.015322100000000002 bus1=p10udm15865.1.2 bus2=p10ulv15837.1.2 switch=n enabled=y phases=2 Linecode=1P_UG_AL_1/0_Brenau_2

New Line.l(r:p10udm15862-p10ulv15740) Units=km Length=0.0109758 bus1=p10udm15862.1.2 bus2=p10ulv15740.1.2 switch=n enabled=y phases=2 Linecode=1P_OH_AL_2/0_Rucina_2

New Line.l(r:p10udm15862-p10udm15865) Units=km Length=0.0367041 bus1=p10udm15865.1.2 bus2=p10udm15862.1.2 switch=n enabled=y phases=2 Linecode=1P_OH_AL_4/0_Zuzara_2

New Line.l(r:p10udm15865-p10udt4786lv) Units=km Length=0.00678162 bus1=p10udt4786lv.1.2 bus2=p10udm15865.1.2 switch=n enabled=y phases=2 Linecode=1P_UG_AL_1/0_Brenau_2

New Line.l(r:p10udt4787lv-p10ulv15892) Units=km Length=0.0120531 bus1=p10udt4787lv.1.2 bus2=p10ulv15892.1.2 switch=n enabled=y phases=2 Linecode=1P_UG_AL_1/0_Brenau_2

New Line.l(r:p10udm15866-p10ulv15627) Units=km Length=0.0124007 bus1=p10udm15866.1.2 bus2=p10ulv15627.1.2 switch=n enabled=y phases=2 Linecode=1P_UG_AL_1/0_Brenau_2

New Line.l(r:p10udm15866-p10ulv15988) Units=km Length=0.0144619 bus1=p10udm15866.1.2 bus2=p10ulv15988.1.2 switch=n enabled=y phases=2 Linecode=1P_UG_AL_1/0_Brenau_2

New Line.l(r:p10udm15866-p10udt4787lv) Units=km Length=0.00991335 bus1=p10udt4787lv.1.2 bus2=p10udm15866.1.2 switch=n enabled=y phases=2 Linecode=1P_UG_AL_1/0_Brenau_2

New Line.l(r:p10udm15867-p10ulv15753) Units=km Length=0.0125276 bus1=p10udm15867.1.2 bus2=p10ulv15753.1.2 switch=n enabled=y phases=2 Linecode=1P_UG_AL_1/0_Brenau_2

New Line.l(r:p10udm15867-p10ulv16015) Units=km Length=0.0154086 bus1=p10udm15867.1.2 bus2=p10ulv16015.1.2 switch=n enabled=y phases=2 Linecode=1P_UG_AL_1/0_Brenau_2

New Line.l(r:p10udm15867-p10udt4787lv) Units=km Length=0.00991335 bus1=p10udt4787lv.1.2 bus2=p10udm15867.1.2 switch=n enabled=y phases=2 Linecode=1P_UG_AL_1/0_Brenau_2

New Line.l(r:p10udt4788lv-p10ulv15628) Units=km Length=0.022801 bus1=p10udt4788lv.1.2 bus2=p10ulv15628.1.2 switch=n enabled=y phases=2 Linecode=1P_UG_AL_1/0_Brenau_2

New Line.l(r:p10udt4788lv-p10ulv15639) Units=km Length=0.022801 bus1=p10udt4788lv.1.2 bus2=p10ulv15639.1.2 switch=n enabled=y phases=2 Linecode=1P_UG_AL_1/0_Brenau_2

New Line.l(r:p10udm15873-p10ulv15630) Units=km Length=0.0144908 bus1=p10udm15873.1.2 bus2=p10ulv15630.1.2 switch=n enabled=y phases=2 Linecode=1P_OH_AL_2/0_Rucina_2

New Line.l(r:p10udm15873-p10ulv15725) Units=km Length=0.0178851 bus1=p10udm15873.1.2 bus2=p10ulv15725.1.2 switch=n enabled=y phases=2 Linecode=1P_OH_AL_2/0_Rucina_2

New Line.l(r:p10udm15876-p10ulv15799) Units=km Length=0.0154402 bus1=p10udm15876.1.2 bus2=p10ulv15799.1.2 switch=n enabled=y phases=2 Linecode=1P_OH_AL_2/0_Rucina_2

New Line.l(r:p10udm15873-p10udm15876) Units=km Length=0.046724400000000006 bus1=p10udm15873.1.2 bus2=p10udm15876.1.2 switch=n enabled=y phases=2 Linecode=1P_OH_AL_4/0_Zuzara_2

New Line.l(r:p10udm15873-p10udt4789lv) Units=km Length=0.0177905 bus1=p10udt4789lv.1.2 bus2=p10udm15873.1.2 switch=n enabled=y phases=2 Linecode=1P_OH_AL_2/0_Rucina_2

New Line.l(r:p10udm15877-p10ulv15825) Units=km Length=0.021554900000000002 bus1=p10udm15877.1.2 bus2=p10ulv15825.1.2 switch=n enabled=y phases=2 Linecode=1P_OH_AL_2/0_Rucina_2

New Line.l(r:p10udm15875-p10ulv15746) Units=km Length=0.0177761 bus1=p10udm15875.1.2 bus2=p10ulv15746.1.2 switch=n enabled=y phases=2 Linecode=1P_OH_AL_2/0_Rucina_2

New Line.l(r:p10udm15875-p10udm15877) Units=km Length=0.0355809 bus1=p10udm15877.1.2 bus2=p10udm15875.1.2 switch=n enabled=y phases=2 Linecode=1P_OH_AL_4/0_Zuzara_2

New Line.l(r:p10udm15877-p10udt4789lv) Units=km Length=0.0178006 bus1=p10udt4789lv.1.2 bus2=p10udm15877.1.2 switch=n enabled=y phases=2 Linecode=1P_OH_AL_2/0_Rucina_2

New Line.l(r:p10udt4791lv-p10ulv16099) Units=km Length=0.0137349 bus1=p10udt4791lv.1.2 bus2=p10ulv16099.1.2 switch=n enabled=y phases=2 Linecode=1P_UG_AL_1/0_Brenau_2

New Line.l(r:p10udm15879-p10ulv15632) Units=km Length=0.0135663 bus1=p10udm15879.1.2 bus2=p10ulv15632.1.2 switch=n enabled=y phases=2 Linecode=1P_UG_AL_1/0_Brenau_2

New Line.l(r:p10udm15880-p10ulv15727) Units=km Length=0.013077200000000002 bus1=p10udm15880.1.2 bus2=p10ulv15727.1.2 switch=n enabled=y phases=2 Linecode=1P_UG_AL_1/0_Brenau_2

New Line.l(r:p10udm15885-p10ulv16319) Units=km Length=0.0135601 bus1=p10udm15885.1.2 bus2=p10ulv16319.1.2 switch=n enabled=y phases=2 Linecode=1P_UG_AL_1/0_Brenau_2

New Line.l(r:p10udm15880-p10udm15885) Units=km Length=0.0360511 bus1=p10udm15880.1.2 bus2=p10udm15885.1.2 switch=n enabled=y phases=2 Linecode=1P_UG_AL_1/0_Brenau_2

New Line.l(r:p10udm15879-p10udm15880) Units=km Length=0.0188396 bus1=p10udm15879.1.2 bus2=p10udm15880.1.2 switch=n enabled=y phases=2 Linecode=1P_UG_AL_1/0_Brenau_2

New Line.l(r:p10udm15879-p10udt4791lv) Units=km Length=0.00950606 bus1=p10udt4791lv.1.2 bus2=p10udm15879.1.2 switch=n enabled=y phases=2 Linecode=1P_UG_AL_1/0_Brenau_2

New Line.l(r:p10udm15882-p10ulv15847) Units=km Length=0.0128567 bus1=p10udm15882.1.2 bus2=p10ulv15847.1.2 switch=n enabled=y phases=2 Linecode=1P_UG_AL_1/0_Brenau_2

New Line.l(r:p10udm15881-p10ulv15828) Units=km Length=0.012047 bus1=p10udm15881.1.2 bus2=p10ulv15828.1.2 switch=n enabled=y phases=2 Linecode=1P_UG_AL_1/0_Brenau_2

New Line.l(r:p10udm15883-p10ulv15870) Units=km Length=0.0121832 bus1=p10udm15883.1.2 bus2=p10ulv15870.1.2 switch=n enabled=y phases=2 Linecode=1P_UG_AL_1/0_Brenau_2

New Line.l(r:p10udm15883-p10ulv16412) Units=km Length=0.0150629 bus1=p10udm15883.1.2 bus2=p10ulv16412.1.2 switch=n enabled=y phases=2 Linecode=1P_UG_AL_1/0_Brenau_2

New Line.l(r:p10udm15881-p10udm15883) Units=km Length=0.0158867 bus1=p10udm15881.1.2 bus2=p10udm15883.1.2 switch=n enabled=y phases=2 Linecode=1P_UG_AL_1/0_Brenau_2

New Line.l(r:p10udm15881-p10udm15882) Units=km Length=0.00950606 bus1=p10udm15882.1.2 bus2=p10udm15881.1.2 switch=n enabled=y phases=2 Linecode=1P_UG_AL_1/0_Brenau_2

New Line.l(r:p10udm15882-p10udt4791lv) Units=km Length=0.009507810000000002 bus1=p10udt4791lv.1.2 bus2=p10udm15882.1.2 switch=n enabled=y phases=2 Linecode=1P_UG_AL_1/0_Brenau_2

New Line.l(r:p10udt4793lv-p10ulv15634) Units=km Length=0.0280077 bus1=p10udt4793lv.1.2 bus2=p10ulv15634.1.2 switch=n enabled=y phases=2 Linecode=1P_UG_AL_1/0_Brenau_2

New Line.l(r:p10udt4793lv-p10ulv15682) Units=km Length=0.0211669 bus1=p10udt4793lv.1.2 bus2=p10ulv15682.1.2 switch=n enabled=y phases=2 Linecode=1P_UG_AL_1/0_Brenau_2

New Line.l(r:p10udt4796lv-p10ulv15865) Units=km Length=0.0150381 bus1=p10udt4796lv.1.2 bus2=p10ulv15865.1.2 switch=n enabled=y phases=2 Linecode=1P_UG_AL_1/0_Brenau_2

New Line.l(r:p10udt4796lv-p10ulv16444) Units=km Length=0.0140204 bus1=p10udt4796lv.1.2 bus2=p10ulv16444.1.2 switch=n enabled=y phases=2 Linecode=1P_UG_AL_1/0_Brenau_2

New Line.l(r:p10udm15897-p10ulv15640) Units=km Length=0.0138095 bus1=p10udm15897.1.2 bus2=p10ulv15640.1.2 switch=n enabled=y phases=2 Linecode=1P_UG_AL_1/0_Brenau_2

New Line.l(r:p10udm15897-p10udt4796lv) Units=km Length=0.0298199 bus1=p10udt4796lv.1.2 bus2=p10udm15897.1.2 switch=n enabled=y phases=2 Linecode=1P_UG_AL_1/0_Brenau_2

New Line.l(r:p10udm15898-p10ulv15657) Units=km Length=0.013936800000000001 bus1=p10udm15898.1.2 bus2=p10ulv15657.1.2 switch=n enabled=y phases=2 Linecode=1P_UG_AL_1/0_Brenau_2

New Line.l(r:p10udm15898-p10ulv16432) Units=km Length=0.01426 bus1=p10udm15898.1.2 bus2=p10ulv16432.1.2 switch=n enabled=y phases=2 Linecode=1P_UG_AL_1/0_Brenau_2

New Line.l(r:p10udm15898-p10udt4796lv) Units=km Length=0.019883 bus1=p10udt4796lv.1.2 bus2=p10udm15898.1.2 switch=n enabled=y phases=2 Linecode=1P_UG_AL_1/0_Brenau_2

New Line.l(r:p10udt4798lv-p10ulv19359) Units=km Length=0.0147607 bus1=p10udt4798lv.1.2 bus2=p10ulv19359.1.2 switch=n enabled=y phases=2 Linecode=1P_UG_AL_1/0_Brenau_2

New Line.l(r:p10udm15904-p10ulv15642) Units=km Length=0.0114536 bus1=p10udm15904.1.2 bus2=p10ulv15642.1.2 switch=n enabled=y phases=2 Linecode=1P_UG_AL_1/0_Brenau_2

New Line.l(r:p10udm15905-p10ulv15784) Units=km Length=0.012213 bus1=p10udm15905.1.2 bus2=p10ulv15784.1.2 switch=n enabled=y phases=2 Linecode=1P_UG_AL_1/0_Brenau_2

New Line.l(r:p10udm15906-p10ulv15817) Units=km Length=0.0157462 bus1=p10udm15906.1.2 bus2=p10ulv15817.1.2 switch=n enabled=y phases=2 Linecode=1P_UG_AL_1/0_Brenau_2

New Line.l(r:p10udm15905-p10udm15906) Units=km Length=0.00949413 bus1=p10udm15905.1.2 bus2=p10udm15906.1.2 switch=n enabled=y phases=2 Linecode=1P_UG_AL_1/0_Brenau_2

New Line.l(r:p10udm15904-p10udm15905) Units=km Length=0.0189983 bus1=p10udm15904.1.2 bus2=p10udm15905.1.2 switch=n enabled=y phases=2 Linecode=1P_UG_AL_1/0_Brenau_2

New Line.l(r:p10udm15904-p10udt4798lv) Units=km Length=0.00949413 bus1=p10udt4798lv.1.2 bus2=p10udm15904.1.2 switch=n enabled=y phases=2 Linecode=1P_UG_AL_1/0_Brenau_2

New Line.l(r:p10udm15907-p10ulv19252) Units=km Length=0.0131616 bus1=p10udm15907.1.2 bus2=p10ulv19252.1.2 switch=n enabled=y phases=2 Linecode=1P_UG_AL_1/0_Brenau_2

New Line.l(r:p10udm15909-p10ulv19299) Units=km Length=0.0145524 bus1=p10udm15909.1.2 bus2=p10ulv19299.1.2 switch=n enabled=y phases=2 Linecode=1P_UG_AL_1/0_Brenau_2

New Line.l(r:p10udm15909-p10ulv19484) Units=km Length=0.0159494 bus1=p10udm15909.1.2 bus2=p10ulv19484.1.2 switch=n enabled=y phases=2 Linecode=1P_UG_AL_1/0_Brenau_2

New Line.l(r:p10udm15908-p10ulv19283) Units=km Length=0.013680100000000002 bus1=p10udm15908.1.2 bus2=p10ulv19283.1.2 switch=n enabled=y phases=2 Linecode=1P_UG_AL_1/0_Brenau_2

New Line.l(r:p10udm15908-p10udm15909) Units=km Length=0.0189883 bus1=p10udm15909.1.2 bus2=p10udm15908.1.2 switch=n enabled=y phases=2 Linecode=1P_UG_AL_1/0_Brenau_2

New Line.l(r:p10udm15907-p10udm15909) Units=km Length=0.00950413 bus1=p10udm15907.1.2 bus2=p10udm15909.1.2 switch=n enabled=y phases=2 Linecode=1P_UG_AL_1/0_Brenau_2

New Line.l(r:p10udm15907-p10udt4798lv) Units=km Length=0.00949443 bus1=p10udt4798lv.1.2 bus2=p10udm15907.1.2 switch=n enabled=y phases=2 Linecode=1P_UG_AL_2/0_Converse_2

New Line.l(r:p10udm15917-p10ulv15646) Units=km Length=0.0109627 bus1=p10udm15917.1.2 bus2=p10ulv15646.1.2 switch=n enabled=y phases=2 Linecode=1P_UG_AL_1/0_Brenau_2

New Line.l(r:p10udm15920-p10ulv16223) Units=km Length=0.0155301 bus1=p10udm15920.1.2 bus2=p10ulv16223.1.2 switch=n enabled=y phases=2 Linecode=1P_UG_AL_1/0_Brenau_2

New Line.l(r:p10udm15917-p10udm15920) Units=km Length=0.00748829 bus1=p10udm15917.1.2 bus2=p10udm15920.1.2 switch=n enabled=y phases=2 Linecode=1P_UG_AL_1/0_Brenau_2

New Line.l(r:p10udm15917-p10udt4800lv) Units=km Length=0.0245255 bus1=p10udt4800lv.1.2 bus2=p10udm15917.1.2 switch=n enabled=y phases=2 Linecode=1P_UG_AL_1/0_Brenau_2

New Line.l(r:p10udm15919-p10ulv16218) Units=km Length=0.0167094 bus1=p10udm15919.1.2 bus2=p10ulv16218.1.2 switch=n enabled=y phases=2 Linecode=1P_UG_AL_1/0_Brenau_2

New Line.l(r:p10udm15918-p10ulv15800) Units=km Length=0.012441700000000002 bus1=p10udm15918.1.2 bus2=p10ulv15800.1.2 switch=n enabled=y phases=2 Linecode=1P_UG_AL_1/0_Brenau_2

New Line.l(r:p10udm15918-p10ulv16281) Units=km Length=0.01351 bus1=p10udm15918.1.2 bus2=p10ulv16281.1.2 switch=n enabled=y phases=2 Linecode=1P_UG_AL_1/0_Brenau_2

New Line.l(r:p10udm15918-p10udm15919) Units=km Length=0.00851049 bus1=p10udm15919.1.2 bus2=p10udm15918.1.2 switch=n enabled=y phases=2 Linecode=1P_UG_AL_1/0_Brenau_2

New Line.l(r:p10udm15919-p10udt4800lv) Units=km Length=0.00851049 bus1=p10udt4800lv.1.2 bus2=p10udm15919.1.2 switch=n enabled=y phases=2 Linecode=1P_UG_AL_1/0_Brenau_2

New Line.l(r:p10udt4801lv-p10ulv15647) Units=km Length=0.010063 bus1=p10udt4801lv.1.2 bus2=p10ulv15647.1.2 switch=n enabled=y phases=2 Linecode=1P_UG_AL_1/0_Brenau_2

New Line.l(r:p10udm15923-p10ulv15735) Units=km Length=0.0109509 bus1=p10udm15923.1.2 bus2=p10ulv15735.1.2 switch=n enabled=y phases=2 Linecode=1P_UG_AL_1/0_Brenau_2

New Line.l(r:p10udm15923-p10udt4801lv) Units=km Length=0.0163019 bus1=p10udt4801lv.1.2 bus2=p10udm15923.1.2 switch=n enabled=y phases=2 Linecode=1P_UG_AL_1/0_Brenau_2

New Line.l(r:p10udm15924-p10ulv15851) Units=km Length=0.0101871 bus1=p10udm15924.1.2 bus2=p10ulv15851.1.2 switch=n enabled=y phases=2 Linecode=1P_UG_AL_1/0_Brenau_2

New Line.l(r:p10udm15926-p10ulv16306) Units=km Length=0.0110823 bus1=p10udm15926.1.2 bus2=p10ulv16306.1.2 switch=n enabled=y phases=2 Linecode=1P_UG_AL_1/0_Brenau_2

New Line.l(r:p10udm15925-p10ulv16270) Units=km Length=0.0133612 bus1=p10udm15925.1.2 bus2=p10ulv16270.1.2 switch=n enabled=y phases=2 Linecode=1P_UG_AL_1/0_Brenau_2

New Line.l(r:p10udm15925-p10udm15926) Units=km Length=0.019388700000000002 bus1=p10udm15926.1.2 bus2=p10udm15925.1.2 switch=n enabled=y phases=2 Linecode=1P_UG_AL_1/0_Brenau_2

New Line.l(r:p10udm15924-p10udm15926) Units=km Length=0.019379200000000003 bus1=p10udm15924.1.2 bus2=p10udm15926.1.2 switch=n enabled=y phases=2 Linecode=1P_UG_AL_1/0_Brenau_2

New Line.l(r:p10udm15924-p10udt4801lv) Units=km Length=0.00815251 bus1=p10udt4801lv.1.2 bus2=p10udm15924.1.2 switch=n enabled=y phases=2 Linecode=1P_UG_AL_1/0_Brenau_2

New Line.l(r:p10udt4804lv-p10ulv15651) Units=km Length=0.0160961 bus1=p10udt4804lv.1.2 bus2=p10ulv15651.1.2 switch=n enabled=y phases=2 Linecode=1P_OH_AL_2/0_Rucina_2

New Line.l(r:p10udt4807lv-p10ulv15655) Units=km Length=0.014204 bus1=p10udt4807lv.1.2 bus2=p10ulv15655.1.2 switch=n enabled=y phases=2 Linecode=1P_UG_AL_1/0_Brenau_2

New Line.l(r:p10udt4807lv-p10ulv16311) Units=km Length=0.0157836 bus1=p10udt4807lv.1.2 bus2=p10ulv16311.1.2 switch=n enabled=y phases=2 Linecode=1P_UG_AL_1/0_Brenau_2

New Line.l(r:p10udm15946-p10ulv16021) Units=km Length=0.0159722 bus1=p10udm15946.1.2 bus2=p10ulv16021.1.2 switch=n enabled=y phases=2 Linecode=1P_UG_AL_1/0_Brenau_2

New Line.l(r:p10udm15946-p10udt4807lv) Units=km Length=0.00933176 bus1=p10udt4807lv.1.2 bus2=p10udm15946.1.2 switch=n enabled=y phases=2 Linecode=1P_UG_AL_1/0_Brenau_2

New Line.l(r:p10udt4808lv-p10ulv15656) Units=km Length=0.0048828 bus1=p10udt4808lv.1.2 bus2=p10ulv15656.1.2 switch=n enabled=y phases=2 Linecode=1P_OH_AL_2/0_Rucina_2

New Line.l(r:p10udt4808lv-p10ulv15715) Units=km Length=0.00881346 bus1=p10udt4808lv.1.2 bus2=p10ulv15715.1.2 switch=n enabled=y phases=2 Linecode=1P_OH_AL_2/0_Rucina_2

New Line.l(r:p10udm15966-p10ulv15664) Units=km Length=0.013718000000000001 bus1=p10udm15966.1.2 bus2=p10ulv15664.1.2 switch=n enabled=y phases=2 Linecode=1P_UG_AL_1/0_Brenau_2

New Line.l(r:p10udm15966-p10ulv15823) Units=km Length=0.012690300000000002 bus1=p10udm15966.1.2 bus2=p10ulv15823.1.2 switch=n enabled=y phases=2 Linecode=1P_UG_AL_1/0_Brenau_2

New Line.l(r:p10udm15966-p10udt4813lv) Units=km Length=0.00965564 bus1=p10udt4813lv.1.2 bus2=p10udm15966.1.2 switch=n enabled=y phases=2 Linecode=1P_UG_AL_1/0_Brenau_2

New Line.l(r:p10udm15968-p10ulv19338) Units=km Length=0.0129101 bus1=p10udm15968.1.2 bus2=p10ulv19338.1.2 switch=n enabled=y phases=2 Linecode=1P_UG_AL_1/0_Brenau_2

New Line.l(r:p10udm15969-p10ulv19391) Units=km Length=0.0160058 bus1=p10udm15969.1.2 bus2=p10ulv19391.1.2 switch=n enabled=y phases=2 Linecode=1P_UG_AL_1/0_Brenau_2

New Line.l(r:p10udm15968-p10udm15969) Units=km Length=0.00964565 bus1=p10udm15968.1.2 bus2=p10udm15969.1.2 switch=n enabled=y phases=2 Linecode=1P_UG_AL_1/0_Brenau_2

New Line.l(r:p10udm15968-p10udt4813lv) Units=km Length=0.00965564 bus1=p10udt4813lv.1.2 bus2=p10udm15968.1.2 switch=n enabled=y phases=2 Linecode=1P_UG_AL_1/0_Brenau_2

New Line.l(r:p10udt4814lv-p10ulv15686) Units=km Length=0.00347508 bus1=p10udt4814lv.1.2 bus2=p10ulv15686.1.2 switch=n enabled=y phases=2 Linecode=1P_OH_AL_4_Periwinkle_2

New Line.l(r:p10udm15970-p10ulv15665) Units=km Length=0.0170105 bus1=p10udm15970.1.2 bus2=p10ulv15665.1.2 switch=n enabled=y phases=2 Linecode=1P_OH_AL_2/0_Rucina_2

New Line.l(r:p10udm15970-p10ulv15718) Units=km Length=0.00296892 bus1=p10udm15970.1.2 bus2=p10ulv15718.1.2 switch=n enabled=y phases=2 Linecode=1P_OH_AL_4_Periwinkle_2

New Line.l(r:p10udm15970-p10ulv15733) Units=km Length=0.0041836 bus1=p10udm15970.1.2 bus2=p10ulv15733.1.2 switch=n enabled=y phases=2 Linecode=1P_OH_AL_2/0_Rucina_2

New Line.l(r:p10udm15976-p10ulv15750) Units=km Length=0.0127406 bus1=p10udm15976.1.2 bus2=p10ulv15750.1.2 switch=n enabled=y phases=2 Linecode=1P_OH_AL_2/0_Rucina_2

New Line.l(r:p10udm15970-p10udm15976) Units=km Length=0.0341823 bus1=p10udm15970.1.2 bus2=p10udm15976.1.2 switch=n enabled=y phases=2 Linecode=1P_OH_AL_4/0_Zuzara_2

New Line.l(r:p10udm15970-p10udt4814lv) Units=km Length=0.021822900000000003 bus1=p10udt4814lv.1.2 bus2=p10udm15970.1.2 switch=n enabled=y phases=2 Linecode=1P_OH_AL_2/0_Rucina_2

New Line.l(r:p10udm15971-p10ulv15676) Units=km Length=0.00971412 bus1=p10udm15971.1.2 bus2=p10ulv15676.1.2 switch=n enabled=y phases=2 Linecode=1P_OH_AL_2/0_Rucina_2

New Line.l(r:p10udm15977-p10ulv15795) Units=km Length=0.0103457 bus1=p10udm15977.1.2 bus2=p10ulv15795.1.2 switch=n enabled=y phases=2 Linecode=1P_OH_AL_2/0_Rucina_2

New Line.l(r:p10udm15973-p10ulv15714) Units=km Length=0.00716634 bus1=p10udm15973.1.2 bus2=p10ulv15714.1.2 switch=n enabled=y phases=2 Linecode=1P_OH_AL_2/0_Rucina_2

New Line.l(r:p10udm15973-p10udm15977) Units=km Length=0.0376056 bus1=p10udm15977.1.2 bus2=p10udm15973.1.2 switch=n enabled=y phases=2 Linecode=1P_OH_AL_4/0_Zuzara_2

New Line.l(r:p10udm15971-p10udm15977) Units=km Length=0.04772 bus1=p10udm15971.1.2 bus2=p10udm15977.1.2 switch=n enabled=y phases=2 Linecode=1P_OH_AL_4/0_Zuzara_2

New Line.l(r:p10udm15971-p10udt4814lv) Units=km Length=0.01834 bus1=p10udt4814lv.1.2 bus2=p10udm15971.1.2 switch=n enabled=y phases=2 Linecode=1P_OH_AL_2/0_Rucina_2

New Line.l(r:p10udm15979-p10ulv15669) Units=km Length=0.0150224 bus1=p10udm15979.1.2 bus2=p10ulv15669.1.2 switch=n enabled=y phases=2 Linecode=1P_UG_AL_1/0_Brenau_2

New Line.l(r:p10udm15979-p10ulv16512) Units=km Length=0.012940800000000002 bus1=p10udm15979.1.2 bus2=p10ulv16512.1.2 switch=n enabled=y phases=2 Linecode=1P_UG_AL_1/0_Brenau_2

New Line.l(r:p10udm15979-p10udt4816lv) Units=km Length=0.00994652 bus1=p10udt4816lv.1.2 bus2=p10udm15979.1.2 switch=n enabled=y phases=2 Linecode=1P_UG_AL_1/0_Brenau_2

New Line.l(r:p10udm15981-p10ulv15838) Units=km Length=0.0206906 bus1=p10udm15981.1.2 bus2=p10ulv15838.1.2 switch=n enabled=y phases=2 Linecode=1P_UG_AL_1/0_Brenau_2

New Line.l(r:p10udm15980-p10ulv15831) Units=km Length=0.0178905 bus1=p10udm15980.1.2 bus2=p10ulv15831.1.2 switch=n enabled=y phases=2 Linecode=1P_UG_AL_1/0_Brenau_2

New Line.l(r:p10udm15982-p10ulv16431) Units=km Length=0.0151699 bus1=p10udm15982.1.2 bus2=p10ulv16431.1.2 switch=n enabled=y phases=2 Linecode=1P_UG_AL_1/0_Brenau_2

New Line.l(r:p10udm15980-p10udm15982) Units=km Length=0.0747429 bus1=p10udm15980.1.2 bus2=p10udm15982.1.2 switch=n enabled=y phases=2 Linecode=1P_UG_AL_1/0_Brenau_2

New Line.l(r:p10udm15980-p10udm15981) Units=km Length=0.017071800000000005 bus1=p10udm15981.1.2 bus2=p10udm15980.1.2 switch=n enabled=y phases=2 Linecode=1P_UG_AL_1/0_Brenau_2

New Line.l(r:p10udm15981-p10udt4816lv) Units=km Length=0.009936520000000003 bus1=p10udt4816lv.1.2 bus2=p10udm15981.1.2 switch=n enabled=y phases=2 Linecode=1P_UG_AL_1/0_Brenau_2

New Line.l(r:p10udt4817lv-p10ulv15705) Units=km Length=0.0242009 bus1=p10udt4817lv.1.2 bus2=p10ulv15705.1.2 switch=n enabled=y phases=2 Linecode=1P_UG_AL_1/0_Brenau_2

New Line.l(r:p10udt4817lv-p10ulv15732) Units=km Length=0.0262325 bus1=p10udt4817lv.1.2 bus2=p10ulv15732.1.2 switch=n enabled=y phases=2 Linecode=1P_UG_AL_1/0_Brenau_2

New Line.l(r:p10udt4817lv-p10ulv15782) Units=km Length=0.0265294 bus1=p10udt4817lv.1.2 bus2=p10ulv15782.1.2 switch=n enabled=y phases=2 Linecode=1P_UG_AL_1/0_Brenau_2

New Line.l(r:p10udm15984-p10ulv15670) Units=km Length=0.021447 bus1=p10udm15984.1.2 bus2=p10ulv15670.1.2 switch=n enabled=y phases=2 Linecode=1P_UG_AL_1/0_Brenau_2

New Line.l(r:p10udm15984-p10ulv15814) Units=km Length=0.0156965 bus1=p10udm15984.1.2 bus2=p10ulv15814.1.2 switch=n enabled=y phases=2 Linecode=1P_UG_AL_1/0_Brenau_2

New Line.l(r:p10udm15986-p10ulv15712) Units=km Length=0.0123452 bus1=p10udm15986.1.2 bus2=p10ulv15712.1.2 switch=n enabled=y phases=2 Linecode=1P_UG_AL_1/0_Brenau_2

New Line.l(r:p10udm15984-p10udm15986) Units=km Length=0.00965564 bus1=p10udm15984.1.2 bus2=p10udm15986.1.2 switch=n enabled=y phases=2 Linecode=1P_UG_AL_1/0_Brenau_2

New Line.l(r:p10udm15984-p10udt4817lv) Units=km Length=0.00964565 bus1=p10udt4817lv.1.2 bus2=p10udm15984.1.2 switch=n enabled=y phases=2 Linecode=1P_UG_AL_1/0_Brenau_2

New Line.l(r:p10udm16001-p10ulv15683) Units=km Length=0.00568764 bus1=p10udm16001.1.2 bus2=p10ulv15683.1.2 switch=n enabled=y phases=2 Linecode=1P_OH_AL_2/0_Rucina_2

New Line.l(r:p10udm16001-p10udt4822lv) Units=km Length=0.0101704 bus1=p10udt4822lv.1.2 bus2=p10udm16001.1.2 switch=n enabled=y phases=2 Linecode=1P_OH_AL_2/0_Rucina_2

New Line.l(r:p10udm16002-p10ulv15857) Units=km Length=0.00724166 bus1=p10udm16002.1.2 bus2=p10ulv15857.1.2 switch=n enabled=y phases=2 Linecode=1P_OH_AL_2/0_Rucina_2

New Line.l(r:p10udm16002-p10ulv15883) Units=km Length=0.00889324 bus1=p10udm16002.1.2 bus2=p10ulv15883.1.2 switch=n enabled=y phases=2 Linecode=1P_OH_AL_2/0_Rucina_2

New Line.l(r:p10udm16002-p10udt4822lv) Units=km Length=0.0101705 bus1=p10udt4822lv.1.2 bus2=p10udm16002.1.2 switch=n enabled=y phases=2 Linecode=1P_OH_AL_2/0_Rucina_2

New Line.l(r:p10udm16005-p10ulv15760) Units=km Length=0.00451656 bus1=p10udm16005.1.2 bus2=p10ulv15760.1.2 switch=n enabled=y phases=2 Linecode=1P_OH_AL_2/0_Rucina_2

New Line.l(r:p10udm16008-p10ulv15796) Units=km Length=0.0144211 bus1=p10udm16008.1.2 bus2=p10ulv15796.1.2 switch=n enabled=y phases=2 Linecode=1P_OH_AL_2/0_Rucina_2

New Line.l(r:p10udm16005-p10udm16008) Units=km Length=0.0785638 bus1=p10udm16005.1.2 bus2=p10udm16008.1.2 switch=n enabled=y phases=2 Linecode=1P_OH_AL_4/0_Zuzara_2

New Line.l(r:p10udm16005-p10udt4823lv) Units=km Length=0.00808223 bus1=p10udt4823lv.1.2 bus2=p10udm16005.1.2 switch=n enabled=y phases=2 Linecode=1P_OH_AL_2/0_Rucina_2

New Line.l(r:p10udm16006-p10ulv15772) Units=km Length=0.00560329 bus1=p10udm16006.1.2 bus2=p10ulv15772.1.2 switch=n enabled=y phases=2 Linecode=1P_OH_AL_2/0_Rucina_2

New Line.l(r:p10udm16006-p10udt4823lv) Units=km Length=0.066504 bus1=p10udt4823lv.1.2 bus2=p10udm16006.1.2 switch=n enabled=y phases=2 Linecode=1P_OH_AL_4/0_Zuzara_2

New Line.l(r:p10udm16007-p10ulv15773) Units=km Length=0.0025564400000000005 bus1=p10udm16007.1.2 bus2=p10ulv15773.1.2 switch=n enabled=y phases=2 Linecode=1P_OH_AL_4_Periwinkle_2

New Line.l(r:p10udm16004-p10ulv15692) Units=km Length=0.00454526 bus1=p10udm16004.1.2 bus2=p10ulv15692.1.2 switch=n enabled=y phases=2 Linecode=1P_OH_AL_2/0_Rucina_2

New Line.l(r:p10udm16004-p10udm16007) Units=km Length=0.010210100000000001 bus1=p10udm16007.1.2 bus2=p10udm16004.1.2 switch=n enabled=y phases=2 Linecode=1P_OH_AL_2/0_Rucina_2

New Line.l(r:p10udm16007-p10udt4823lv) Units=km Length=0.00722626 bus1=p10udt4823lv.1.2 bus2=p10udm16007.1.2 switch=n enabled=y phases=2 Linecode=1P_OH_AL_2/0_Rucina_2

New Line.l(r:p10udm16034-p10ulv15766) Units=km Length=0.020978000000000004 bus1=p10udm16034.1.2 bus2=p10ulv15766.1.2 switch=n enabled=y phases=2 Linecode=1P_UG_AL_1/0_Brenau_2

New Line.l(r:p10udm16035-p10ulv15821) Units=km Length=0.013480700000000002 bus1=p10udm16035.1.2 bus2=p10ulv15821.1.2 switch=n enabled=y phases=2 Linecode=1P_UG_AL_1/0_Brenau_2

New Line.l(r:p10udm16034-p10udm16035) Units=km Length=0.00684369 bus1=p10udm16034.1.2 bus2=p10udm16035.1.2 switch=n enabled=y phases=2 Linecode=1P_UG_AL_1/0_Brenau_2

New Line.l(r:p10udm16034-p10udt4831lv) Units=km Length=0.00804597 bus1=p10udt4831lv.1.2 bus2=p10udm16034.1.2 switch=n enabled=y phases=2 Linecode=1P_UG_AL_1/0_Brenau_2

New Line.l(r:p10udm16036-p10ulv15840) Units=km Length=0.0163717 bus1=p10udm16036.1.2 bus2=p10ulv15840.1.2 switch=n enabled=y phases=2 Linecode=1P_UG_AL_1/0_Brenau_2

New Line.l(r:p10udm16036-p10ulv16011) Units=km Length=0.0163743 bus1=p10udm16036.1.2 bus2=p10ulv16011.1.2 switch=n enabled=y phases=2 Linecode=1P_UG_AL_1/0_Brenau_2

New Line.l(r:p10udm16033-p10ulv15708) Units=km Length=0.0119519 bus1=p10udm16033.1.2 bus2=p10ulv15708.1.2 switch=n enabled=y phases=2 Linecode=1P_UG_AL_1/0_Brenau_2

New Line.l(r:p10udm16033-p10udm16036) Units=km Length=0.00853084 bus1=p10udm16036.1.2 bus2=p10udm16033.1.2 switch=n enabled=y phases=2 Linecode=1P_UG_AL_1/0_Brenau_2

New Line.l(r:p10udm16036-p10udt4831lv) Units=km Length=0.0136355 bus1=p10udt4831lv.1.2 bus2=p10udm16036.1.2 switch=n enabled=y phases=2 Linecode=1P_UG_AL_1/0_Brenau_2

New Line.l(r:p10udm16055-p10ulv15780) Units=km Length=0.012712600000000001 bus1=p10udm16055.1.2 bus2=p10ulv15780.1.2 switch=n enabled=y phases=2 Linecode=1P_UG_AL_1/0_Brenau_2

New Line.l(r:p10udm16054-p10ulv15716) Units=km Length=0.0148115 bus1=p10udm16054.1.2 bus2=p10ulv15716.1.2 switch=n enabled=y phases=2 Linecode=1P_UG_AL_1/0_Brenau_2

New Line.l(r:p10udm16054-p10udm16055) Units=km Length=0.0080875 bus1=p10udm16055.1.2 bus2=p10udm16054.1.2 switch=n enabled=y phases=2 Linecode=1P_UG_AL_1/0_Brenau_2

New Line.l(r:p10udm16055-p10udt4836lv) Units=km Length=0.0080875 bus1=p10udt4836lv.1.2 bus2=p10udm16055.1.2 switch=n enabled=y phases=2 Linecode=1P_UG_AL_1/0_Brenau_2

New Line.l(r:p10udm16056-p10ulv16246) Units=km Length=0.0165028 bus1=p10udm16056.1.2 bus2=p10ulv16246.1.2 switch=n enabled=y phases=2 Linecode=1P_UG_AL_1/0_Brenau_2

New Line.l(r:p10udm16056-p10udt4836lv) Units=km Length=0.00808323 bus1=p10udt4836lv.1.2 bus2=p10udm16056.1.2 switch=n enabled=y phases=2 Linecode=1P_UG_AL_1/0_Brenau_2

New Line.l(r:p10udm16058-p10ulv15721) Units=km Length=0.0181717 bus1=p10udm16058.1.2 bus2=p10ulv15721.1.2 switch=n enabled=y phases=2 Linecode=1P_UG_AL_1/0_Brenau_2

New Line.l(r:p10udm16058-p10udt4838lv) Units=km Length=0.0198416 bus1=p10udt4838lv.1.2 bus2=p10udm16058.1.2 switch=n enabled=y phases=2 Linecode=1P_UG_AL_1/0_Brenau_2

New Line.l(r:p10udm16059-p10ulv15778) Units=km Length=0.023311000000000002 bus1=p10udm16059.1.2 bus2=p10ulv15778.1.2 switch=n enabled=y phases=2 Linecode=1P_UG_AL_1/0_Brenau_2

New Line.l(r:p10udm16059-p10udt4838lv) Units=km Length=0.00991085 bus1=p10udt4838lv.1.2 bus2=p10udm16059.1.2 switch=n enabled=y phases=2 Linecode=1P_UG_AL_1/0_Brenau_2

New Line.l(r:p10udt4840lv-p10ulv15996) Units=km Length=0.0189253 bus1=p10udt4840lv.1.2 bus2=p10ulv15996.1.2 switch=n enabled=y phases=2 Linecode=1P_UG_AL_1/0_Brenau_2

New Line.l(r:p10udm16064-p10ulv16093) Units=km Length=0.0252634 bus1=p10udm16064.1.2 bus2=p10ulv16093.1.2 switch=n enabled=y phases=2 Linecode=1P_UG_AL_1/0_Brenau_2

New Line.l(r:p10udm16064-p10ulv16416) Units=km Length=0.022522000000000004 bus1=p10udm16064.1.2 bus2=p10ulv16416.1.2 switch=n enabled=y phases=2 Linecode=1P_UG_AL_1/0_Brenau_2

New Line.l(r:p10udm16064-p10ulv16451) Units=km Length=0.0236186 bus1=p10udm16064.1.2 bus2=p10ulv16451.1.2 switch=n enabled=y phases=2 Linecode=1P_UG_AL_1/0_Brenau_2

New Line.l(r:p10udm16064-p10ulv16551) Units=km Length=0.0263546 bus1=p10udm16064.1.2 bus2=p10ulv16551.1.2 switch=n enabled=y phases=2 Linecode=1P_UG_AL_1/0_Brenau_2

New Line.l(r:p10udm16064-p10udt4840lv) Units=km Length=0.00958963 bus1=p10udt4840lv.1.2 bus2=p10udm16064.1.2 switch=n enabled=y phases=2 Linecode=1P_UG_AL_1/0_Brenau_2

New Line.l(r:p10udm16065-p10ulv16340) Units=km Length=0.0103092 bus1=p10udm16065.1.2 bus2=p10ulv16340.1.2 switch=n enabled=y phases=2 Linecode=1P_UG_AL_1/0_Brenau_2

...