tests/data/opendss_circuit_models/SFO/accdf54c-c90c-4c41-9d7a-5e5d3d17a4e5/Lines.dss
New Line.l(r:p10udt3085lv-p10ulv10191) Units=km Length=0.0196912 bus1=p10udt3085lv.1.2 bus2=p10ulv10191.1.2 switch=n enabled=y phases=2 Linecode=1P_OH_AL_2/0_Rucina_2

New Line.l(r:p10udm10027-p10ulv10174) Units=km Length=0.0161723 bus1=p10udm10027.1.2 bus2=p10ulv10174.1.2 switch=n enabled=y phases=2 Linecode=1P_OH_AL_2/0_Rucina_2

New Line.l(r:p10udm10027-p10ulv10183) Units=km Length=0.027108300000000002 bus1=p10udm10027.1.2 bus2=p10ulv10183.1.2 switch=n enabled=y phases=2 Linecode=1P_OH_AL_4/0_Zuzara_2

New Line.l(r:p10udm10027-p10udt3085lv) Units=km Length=0.0394255 bus1=p10udt3085lv.1.2 bus2=p10udm10027.1.2 switch=n enabled=y phases=2 Linecode=1P_OH_AL_4/0_Zuzara_2

New Line.l(r:p10udm10028-p10ulv10177) Units=km Length=0.047196100000000005 bus1=p10udm10028.1.2 bus2=p10ulv10177.1.2 switch=n enabled=y phases=2 Linecode=1P_OH_AL_4/0_Zuzara_2

New Line.l(r:p10udm10029-p10ulv10178) Units=km Length=0.0465797 bus1=p10udm10029.1.2 bus2=p10ulv10178.1.2 switch=n enabled=y phases=2 Linecode=1P_OH_AL_4/0_Zuzara_2

New Line.l(r:p10udm10028-p10udm10029) Units=km Length=0.0197127 bus1=p10udm10028.1.2 bus2=p10udm10029.1.2 switch=n enabled=y phases=2 Linecode=1P_OH_AL_2/0_Rucina_2

New Line.l(r:p10udm10028-p10udt3085lv) Units=km Length=0.0197086 bus1=p10udt3085lv.1.2 bus2=p10udm10028.1.2 switch=n enabled=y phases=2 Linecode=1P_OH_AL_2/0_Rucina_2

New Line.l(r:p10udt3087lv-p10ulv10188) Units=km Length=0.0648709 bus1=p10udt3087lv.1.2 bus2=p10ulv10188.1.2 switch=n enabled=y phases=2 Linecode=1P_OH_AL_4/0_Zuzara_2

New Line.l(r:p10udt3087lv-p10ulv10192) Units=km Length=0.028998000000000003 bus1=p10udt3087lv.1.2 bus2=p10ulv10192.1.2 switch=n enabled=y phases=2 Linecode=1P_OH_AL_4/0_Zuzara_2

New Line.l(r:p10udt3087lv-p10ulv10196) Units=km Length=0.105034 bus1=p10udt3087lv.1.2 bus2=p10ulv10196.1.2 switch=n enabled=y phases=2 Linecode=1P_OH_AL_4/0_Zuzara_2

New Line.l(r:p10udm10034-p10ulv10176) Units=km Length=0.025790800000000003 bus1=p10udm10034.1.2 bus2=p10ulv10176.1.2 switch=n enabled=y phases=2 Linecode=1P_OH_AL_2/0_Rucina_2

New Line.l(r:p10udm10037-p10ulv10190) Units=km Length=0.05141660000000001 bus1=p10udm10037.1.2 bus2=p10ulv10190.1.2 switch=n enabled=y phases=2 Linecode=1P_OH_AL_4/0_Zuzara_2

New Line.l(r:p10udm10034-p10udm10037) Units=km Length=0.0197127 bus1=p10udm10034.1.2 bus2=p10udm10037.1.2 switch=n enabled=y phases=2 Linecode=1P_OH_AL_2/0_Rucina_2

New Line.l(r:p10udm10034-p10udt3087lv) Units=km Length=0.0196995 bus1=p10udt3087lv.1.2 bus2=p10udm10034.1.2 switch=n enabled=y phases=2 Linecode=1P_OH_AL_2/0_Rucina_2

New Line.l(r:p10udm10035-p10ulv10185) Units=km Length=0.08353310000000001 bus1=p10udm10035.1.2 bus2=p10ulv10185.1.2 switch=n enabled=y phases=2 Linecode=1P_OH_AL_4/0_Zuzara_2

New Line.l(r:p10udm10035-p10ulv10195) Units=km Length=0.020466 bus1=p10udm10035.1.2 bus2=p10ulv10195.1.2 switch=n enabled=y phases=2 Linecode=1P_OH_AL_2/0_Rucina_2

New Line.l(r:p10udm10035-p10udt3087lv) Units=km Length=0.0197127 bus1=p10udt3087lv.1.2 bus2=p10udm10035.1.2 switch=n enabled=y phases=2 Linecode=1P_OH_AL_2/0_Rucina_2

New Line.l(r:p10udt3090lv-p10ulv10181) Units=km Length=0.08900780000000001 bus1=p10udt3090lv.1.2 bus2=p10ulv10181.1.2 switch=n enabled=y phases=2 Linecode=1P_UG_AL_1/0_Brenau_2

New Line.l(r:p10udm10046-p10ulv13908) Units=km Length=0.027991 bus1=p10udm10046.1.2 bus2=p10ulv13908.1.2 switch=n enabled=y phases=2 Linecode=1P_UG_AL_4/0_Sweetbriar_2

New Line.l(r:p10udm10047-p10ulv13912) Units=km Length=0.00519963 bus1=p10udm10047.1.2 bus2=p10ulv13912.1.2 switch=n enabled=y phases=2 Linecode=1P_UG_AL_1/0_Brenau_2

New Line.l(r:p10udm10045-p10ulv10182) Units=km Length=0.02235 bus1=p10udm10045.1.2 bus2=p10ulv10182.1.2 switch=n enabled=y phases=2 Linecode=1P_UG_AL_4/0_Sweetbriar_2

New Line.l(r:p10udm10045-p10udm10047) Units=km Length=0.00979013 bus1=p10udm10047.1.2 bus2=p10udm10045.1.2 switch=n enabled=y phases=2 Linecode=1P_UG_AL_4/0_Sweetbriar_2

New Line.l(r:p10udm10046-p10udm10047) Units=km Length=0.00978013 bus1=p10udm10046.1.2 bus2=p10udm10047.1.2 switch=n enabled=y phases=2 Linecode=1P_UG_AL_4/0_Sweetbriar_2

New Line.l(r:p10udm10046-p10udt3090lv) Units=km Length=0.00978013 bus1=p10udt3090lv.1.2 bus2=p10udm10046.1.2 switch=n enabled=y phases=2 Linecode=1P_UG_AL_4/0_Sweetbriar_2

New Line.l(r:p10udm10048-p10ulv21063) Units=km Length=0.0117921 bus1=p10udm10048.1.2 bus2=p10ulv21063.1.2 switch=n enabled=y phases=2 Linecode=1P_UG_AL_1/0_Brenau_2

New Line.l(r:p10udm10048-p10udt3090lv) Units=km Length=0.068471 bus1=p10udt3090lv.1.2 bus2=p10udm10048.1.2 switch=n enabled=y phases=2 Linecode=1P_UG_AL_1/0_Brenau_2

New Line.l(r:p10udt3092lv-p10ulv10187) Units=km Length=0.0318519 bus1=p10udt3092lv.1.2 bus2=p10ulv10187.1.2 switch=n enabled=y phases=2 Linecode=1P_OH_AL_4/0_Zuzara_2

New Line.l(r:p10udt3092lv-p10ulv10194) Units=km Length=0.0568124 bus1=p10udt3092lv.1.2 bus2=p10ulv10194.1.2 switch=n enabled=y phases=2 Linecode=1P_OH_AL_4/0_Zuzara_2

...